Version 4.1
SHEET 1 2408 680
WIRE -48 -320 -208 -320
WIRE 128 -320 -48 -320
WIRE 608 -320 128 -320
WIRE 800 -320 608 -320
WIRE 960 -320 800 -320
WIRE 1088 -320 960 -320
WIRE 1232 -320 1088 -320
WIRE 1456 -320 1232 -320
WIRE 2112 -320 1456 -320
WIRE 128 -304 128 -320
WIRE 224 -304 128 -304
WIRE 1232 -304 1232 -320
WIRE 1456 -288 1456 -320
WIRE 128 -256 128 -304
WIRE 800 -256 800 -320
WIRE 1328 -224 1232 -224
WIRE 1776 -224 1584 -224
WIRE 224 -208 224 -224
WIRE 224 -208 192 -208
WIRE 320 -208 224 -208
WIRE 384 -208 320 -208
WIRE 480 -208 384 -208
WIRE 960 -208 960 -320
WIRE 1088 -208 1088 -320
WIRE 384 -192 384 -208
WIRE 480 -192 480 -208
WIRE -208 -160 -208 -320
WIRE 1776 -160 1776 -224
WIRE 1872 -160 1776 -160
WIRE 1904 -160 1872 -160
WIRE 2112 -160 2112 -320
WIRE 2112 -160 1984 -160
WIRE 320 -128 320 -208
WIRE 320 -128 288 -128
WIRE 608 -128 608 -320
WIRE 800 -128 800 -176
WIRE 1776 -128 1776 -160
WIRE 224 -112 192 -112
WIRE 480 -112 480 -128
WIRE 1328 -112 1232 -112
WIRE 1680 -112 1584 -112
WIRE 384 -96 384 -112
WIRE 384 -96 288 -96
WIRE 1872 -96 1872 -160
WIRE 16 -48 -208 -48
WIRE 128 -48 128 -160
WIRE 128 -48 80 -48
WIRE 608 -48 608 -64
WIRE 672 -48 608 -48
WIRE 800 -48 800 -64
WIRE 800 -48 752 -48
WIRE 960 -48 960 -144
WIRE 960 -48 800 -48
WIRE 1024 -48 960 -48
WIRE 1088 -48 1088 -144
WIRE 1088 -48 1024 -48
WIRE 1232 -48 1232 -112
WIRE 1232 -48 1088 -48
WIRE -48 -32 -48 -320
WIRE 608 -16 608 -48
WIRE 128 16 128 -48
WIRE 384 16 384 -16
WIRE 800 16 800 -48
WIRE 1232 32 944 32
WIRE 1536 32 1312 32
WIRE 1680 32 1680 -112
WIRE 1680 32 1536 32
WIRE 1776 32 1776 -48
WIRE 1776 32 1680 32
WIRE 1872 32 1872 -32
WIRE 1872 32 1776 32
WIRE 1952 32 1872 32
WIRE -400 64 -400 32
WIRE -304 64 -400 64
WIRE -176 64 -208 64
WIRE -48 64 -48 48
WIRE -48 64 -96 64
WIRE -16 64 -48 64
WIRE 560 64 272 64
WIRE 800 64 800 16
WIRE 1952 64 1952 32
WIRE -400 80 -400 64
WIRE 1680 96 1680 32
WIRE 736 112 704 112
WIRE -144 144 -208 144
WIRE -16 144 -80 144
WIRE 320 144 272 144
WIRE 944 144 944 32
WIRE 1952 160 1952 144
WIRE 320 176 320 144
WIRE 704 192 704 112
WIRE 800 192 800 160
WIRE 800 192 704 192
WIRE 880 192 800 192
WIRE -400 208 -400 160
WIRE 800 208 800 192
WIRE 1680 208 1680 176
WIRE -160 224 -208 224
WIRE -16 224 -80 224
WIRE 448 224 272 224
WIRE 1952 256 1952 224
WIRE 944 272 944 240
WIRE 992 272 944 272
WIRE -192 304 -208 304
WIRE -112 304 -128 304
WIRE -16 304 -32 304
WIRE 336 304 272 304
WIRE 944 304 944 272
WIRE 800 320 800 288
WIRE -400 336 -400 288
WIRE 128 384 128 336
WIRE 448 416 448 224
WIRE 608 416 608 80
WIRE 944 416 944 384
FLAG 128 384 G
FLAG -208 224 G
FLAG 944 416 G
FLAG -208 144 G
FLAG -208 64 G
FLAG -208 304 G
FLAG -208 -48 G
FLAG -208 -160 S
FLAG 608 416 G
FLAG 800 320 G
FLAG 336 304 FB
FLAG 992 272 FB
FLAG 800 16 Vout
FLAG -400 32 S
FLAG -304 64 0
FLAG 192 -112 G
FLAG 384 16 G
FLAG 480 -112 G
FLAG -400 336 G
FLAG 320 176 G
FLAG 1024 -48 vbk
FLAG 1536 32 vldo
FLAG 1952 256 0
FLAG 448 416 G
FLAG 1680 208 0
SYMBOL PowerProducts\\LTC3805 128 176 R0
SYMATTR InstName U1
SYMBOL res -80 48 R90
WINDOW 0 0 56 VBottom 2
WINDOW 3 32 56 VTop 2
SYMATTR InstName R1
SYMATTR Value 120k
SYMBOL res -32 64 R180
WINDOW 0 36 76 Left 2
WINDOW 3 36 40 Left 2
SYMATTR InstName R2
SYMATTR Value 120k
SYMBOL res -176 240 R270
WINDOW 0 32 56 VTop 2
WINDOW 3 0 56 VBottom 2
SYMATTR InstName R3
SYMATTR Value 100k
SYMBOL res -128 320 R270
WINDOW 0 32 56 VTop 2
WINDOW 3 0 56 VBottom 2
SYMATTR InstName R4
SYMATTR Value 15k
SYMBOL cap -128 288 R90
WINDOW 0 0 32 VBottom 2
WINDOW 3 32 32 VTop 2
SYMATTR InstName C1
SYMATTR Value 2.2n
SYMBOL cap -80 128 R90
WINDOW 0 0 32 VBottom 2
WINDOW 3 32 32 VTop 2
SYMATTR InstName C2
SYMATTR Value 10n
SYMBOL res 960 400 R180
WINDOW 0 36 76 Left 2
WINDOW 3 36 40 Left 2
SYMATTR InstName R5
SYMATTR Value 800
SYMBOL cap 80 -64 R90
WINDOW 0 0 32 VBottom 2
WINDOW 3 32 32 VTop 2
SYMATTR InstName C3
SYMATTR Value 1µ
SYMBOL nmos 560 -16 R0
SYMATTR InstName M1
SYMATTR Value IPB025N10N3
SYMBOL schottky 624 -64 R180
WINDOW 0 24 64 Left 2
WINDOW 3 24 0 Left 2
SYMATTR InstName D1
SYMATTR Value DI_PDS1040
SYMBOL ind 656 -32 R270
WINDOW 0 32 56 VTop 2
WINDOW 3 5 56 VBottom 2
SYMATTR InstName L1
SYMATTR Value 6µ
SYMATTR SpiceLine Ipk=2.6 Rser=0.025 Rpar=565.2 Cpar=0 mfg="Coilcraft" pn="MSS7331-602"
SYMBOL cap 784 -128 R0
SYMATTR InstName C4
SYMATTR Value 330µ
SYMBOL pnp 736 160 M180
SYMATTR InstName Q1
SYMATTR Value 2N3906
SYMBOL pnp 880 240 M180
SYMATTR InstName Q2
SYMATTR Value 2N3906
SYMBOL res 784 192 R0
SYMATTR InstName R11
SYMATTR Value 56k
SYMBOL voltage -400 64 R0
WINDOW 123 0 0 Left 0
WINDOW 39 0 0 Left 0
SYMATTR InstName V1
SYMATTR Value 40
SYMBOL npn 192 -256 M0
SYMATTR InstName Q3
SYMATTR Value BC547B
SYMBOL res 208 -320 R0
SYMATTR InstName R6
SYMATTR Value 4.3k
SYMBOL ext\\TL431 256 -112 R0
SYMATTR InstName U2
SYMBOL res 368 -208 R0
SYMATTR InstName R12
SYMATTR Value 27k
SYMBOL res 368 -112 R0
SYMATTR InstName R13
SYMATTR Value 10k
SYMBOL cap 464 -192 R0
SYMATTR InstName C5
SYMATTR Value 0.1µ
SYMBOL voltage -400 192 R0
WINDOW 3 -53 247 VLeft 2
WINDOW 123 0 0 Left 0
WINDOW 39 0 0 Left 0
SYMATTR Value PULSE(-2.5 2.5 100n 10n 10n 0.5m 1m)
SYMATTR InstName V2
SYMBOL PowerProducts\\LT1185 1456 -176 R0
SYMATTR InstName U3
SYMBOL res 1216 -320 R0
SYMATTR InstName R8
SYMATTR Value 4.3k
SYMBOL res 1328 16 R90
WINDOW 0 0 56 VBottom 2
WINDOW 3 32 56 VTop 2
SYMATTR InstName R10
SYMATTR Value 1k
SYMBOL res 1760 -144 R0
SYMATTR InstName R19
SYMATTR Value 100k
SYMBOL cap 1936 160 R0
SYMATTR InstName C6
SYMATTR Value 33µ
SYMBOL res 1936 48 R0
SYMATTR InstName R14
SYMATTR Value 1
SYMBOL res 784 -272 R0
SYMATTR InstName R15
SYMATTR Value 0.05
SYMBOL cap 944 -208 R0
SYMATTR InstName C7
SYMATTR Value 100n
SYMBOL res 2000 -176 R90
WINDOW 0 0 56 VBottom 2
WINDOW 3 32 56 VTop 2
SYMATTR InstName R9
SYMATTR Value 10k
SYMBOL cap 1856 -96 R0
SYMATTR InstName C8
SYMATTR Value 1n
SYMBOL res 1664 80 R0
SYMATTR InstName R17
SYMATTR Value 15
SYMBOL cap 1072 -208 R0
SYMATTR InstName C9
SYMATTR Value 1µ
TEXT -448 488 Left 2 !.tran 8m startup
