Version 4.1
SHEET 1 1556 948
WIRE 720 -192 688 -192
WIRE 688 -112 688 -192
WIRE 736 -112 736 -144
WIRE 736 -112 688 -112
WIRE 560 -64 560 -112
WIRE 688 -64 688 -112
WIRE 96 0 -64 0
WIRE 416 0 96 0
WIRE -64 48 -64 0
WIRE -32 48 -64 48
WIRE 512 48 288 48
WIRE 688 48 688 16
WIRE 784 48 784 -144
WIRE 784 48 688 48
WIRE 960 64 960 48
WIRE 1344 64 1344 48
WIRE 512 96 512 48
WIRE 1136 112 1136 48
WIRE -144 128 -160 128
WIRE -32 128 -64 128
WIRE 320 128 288 128
WIRE 336 128 320 128
WIRE 416 128 416 0
WIRE 416 128 400 128
WIRE 512 128 512 96
WIRE 960 176 960 144
WIRE 1008 176 960 176
WIRE 1344 176 1344 144
WIRE 1344 176 1264 176
WIRE 1344 192 1344 176
WIRE -240 208 -304 208
WIRE -128 208 -160 208
WIRE -32 208 -128 208
WIRE 464 208 288 208
WIRE 320 224 320 128
WIRE -304 288 -304 272
WIRE -128 288 -128 272
WIRE -128 288 -304 288
WIRE -32 288 -128 288
WIRE 320 288 288 288
WIRE 512 288 512 224
WIRE 512 288 320 288
WIRE 544 288 512 288
WIRE 672 288 624 288
WIRE 768 288 672 288
WIRE 864 288 768 288
WIRE 1008 288 864 288
WIRE 1344 288 1344 272
WIRE 1344 288 1264 288
WIRE 1488 288 1344 288
WIRE 672 304 672 288
WIRE 864 304 864 288
WIRE 1344 336 1344 288
WIRE 1488 336 1488 288
WIRE -144 368 -160 368
WIRE -32 368 -64 368
WIRE 416 368 416 128
WIRE 416 368 288 368
WIRE 512 400 512 288
WIRE 544 400 512 400
WIRE 624 400 608 400
WIRE 864 400 864 368
WIRE 672 416 672 384
WIRE 1344 432 1344 400
WIRE -32 448 -64 448
WIRE 416 448 416 368
WIRE 416 448 288 448
WIRE 512 448 512 400
WIRE 1488 464 1488 416
WIRE 672 496 672 480
WIRE 768 496 672 496
WIRE 768 512 768 496
WIRE -144 528 -160 528
WIRE -32 528 -80 528
WIRE 464 528 288 528
WIRE 864 528 864 480
WIRE 1344 528 1344 512
WIRE 512 560 512 544
WIRE -32 608 -64 608
WIRE 320 608 288 608
WIRE 768 608 768 592
WIRE -304 656 -304 288
WIRE 672 656 672 496
WIRE 672 656 -304 656
FLAG 560 16 rtn
FLAG 800 -192 vccb
FLAG 512 48 in
FLAG 688 48 rtn
FLAG -160 128 rtn
FLAG -160 368 rtn
FLAG -64 448 rtn
FLAG -160 528 rtn
FLAG -64 608 rtn
FLAG 320 608 rtn
FLAG 512 560 rtn
FLAG 768 608 rtn
FLAG 624 400 rtn
FLAG 512 96 0
FLAG 560 -192 in
FLAG 1136 48 0
FLAG 960 48 0
FLAG 1344 48 0
FLAG 1344 528 0
FLAG 1488 464 0
FLAG 768 288 vbout
FLAG 1488 288 vldoout
FLAG 96 0 vccb
FLAG 864 528 0
SYMBOL PowerProducts\\LTC3703 128 336 R0
SYMATTR InstName U1
SYMBOL nmos 464 128 R0
SYMATTR InstName Q1
SYMATTR Value BSC077N12NS3
SYMBOL nmos 464 448 R0
SYMATTR InstName Q2
SYMATTR Value BSC077N12NS3
SYMBOL ind 528 304 R270
WINDOW 0 32 56 VTop 2
WINDOW 3 5 56 VBottom 2
SYMATTR InstName L1
SYMATTR Value 10µ
SYMBOL cap 848 304 R0
WINDOW 3 39 33 Left 2
WINDOW 123 28 60 Left 2
SYMATTR Value 22µ
SYMATTR SpiceLine Rser=10m
SYMATTR InstName C1
SYMBOL res -48 352 R90
WINDOW 0 0 56 VBottom 2
WINDOW 3 32 56 VTop 2
SYMATTR InstName R1
SYMATTR Value 10K
SYMBOL res -48 112 R90
WINDOW 0 0 56 VBottom 2
WINDOW 3 32 56 VTop 2
SYMATTR InstName R2
SYMATTR Value 25K
SYMBOL res -144 192 R90
WINDOW 0 0 56 VBottom 2
WINDOW 3 32 56 VTop 2
SYMATTR InstName R3
SYMATTR Value 100K
SYMBOL cap -320 208 R0
WINDOW 0 30 21 Left 2
WINDOW 3 28 56 Left 2
SYMATTR InstName C2
SYMATTR Value 2200p
SYMBOL res 656 288 R0
SYMATTR InstName R5
SYMATTR Value 100
SYMBOL cap 656 416 R0
WINDOW 0 29 12 Left 2
WINDOW 3 28 56 Left 2
SYMATTR InstName C3
SYMATTR Value 2200p
SYMBOL cap -80 512 R90
WINDOW 0 0 32 VBottom 2
WINDOW 3 32 32 VTop 2
SYMATTR InstName C4
SYMATTR Value .001µ
SYMBOL cap 304 224 R0
WINDOW 0 30 5 Left 2
WINDOW 3 37 44 Left 2
SYMATTR InstName C5
SYMATTR Value .1µ
SYMBOL schottky 608 416 M270
WINDOW 0 32 32 VTop 2
WINDOW 3 0 32 VBottom 2
SYMATTR InstName D1
SYMATTR Value 1N5817
SYMATTR Description Diode
SYMATTR Type diode
SYMBOL res 752 496 R0
SYMATTR InstName R6
SYMATTR Value 1k
SYMBOL cap -144 208 R0
WINDOW 0 35 21 Left 2
WINDOW 3 28 56 Left 2
SYMATTR InstName C6
SYMATTR Value 1000p
SYMBOL schottky 400 144 M270
WINDOW 0 32 32 VTop 2
WINDOW 3 0 32 VBottom 2
SYMATTR InstName D2
SYMATTR Value 1N5817
SYMATTR Description Diode
SYMATTR Type diode
SYMBOL voltage 560 -80 R0
WINDOW 123 0 0 Left 0
WINDOW 39 0 0 Left 0
SYMATTR InstName V3
SYMATTR Value 40
SYMBOL sw 816 -192 M270
SYMATTR InstName S1
SYMBOL voltage 688 -80 R0
WINDOW 123 0 0 Left 0
WINDOW 39 0 0 Left 0
SYMATTR InstName V1
SYMATTR Value 12
SYMBOL voltage 560 -208 R0
WINDOW 123 0 0 Left 0
WINDOW 39 0 0 Left 0
SYMATTR InstName V2
SYMATTR Value PULSE(0 5 0 10n 10n 0.49m 1m)
SYMBOL PowerProducts\\LT1185 1136 224 R0
SYMATTR InstName U2
SYMBOL res 944 48 R0
SYMATTR InstName R4
SYMATTR Value 4.3k
SYMBOL res 1328 48 R0
SYMATTR InstName R7
SYMATTR Value 2.2k
SYMBOL res 1328 176 R0
SYMATTR InstName R8
SYMATTR Value 4.3k
SYMBOL cap 1328 336 R0
SYMATTR InstName C7
SYMATTR Value 10µ
SYMBOL res 1328 416 R0
SYMATTR InstName R9
SYMATTR Value 1
SYMBOL res 1472 320 R0
SYMATTR InstName R10
SYMATTR Value 18
SYMBOL res 848 384 R0
SYMATTR InstName R13
SYMATTR Value 0.2
TEXT 744 664 Left 2 !.tran 4m startup
TEXT 800 -24 Left 2 !.model sw sw ron=1m roff=1meg vt=0 vh=-5 level=2 ilimit=0.1
TEXT 312 800 Left 2 ;might need to consider the 3805 again...
