Version 4.1
SHEET 1 1796 948
WIRE 304 -192 -64 -192
WIRE 512 -192 304 -192
WIRE -64 -128 -64 -192
WIRE -224 -80 -224 -128
WIRE -64 0 -64 -48
WIRE 96 0 -64 0
WIRE 416 0 96 0
WIRE -64 48 -64 0
WIRE -32 48 -64 48
WIRE 512 48 512 -192
WIRE 512 48 288 48
WIRE 1344 64 1344 48
WIRE -144 128 -160 128
WIRE -32 128 -64 128
WIRE 320 128 288 128
WIRE 336 128 320 128
WIRE 416 128 416 0
WIRE 416 128 400 128
WIRE 512 128 512 48
WIRE 688 128 688 96
WIRE 976 160 864 160
WIRE 1344 176 1344 144
WIRE 1344 176 944 176
WIRE 864 192 864 160
WIRE 1344 192 1344 176
WIRE -240 208 -304 208
WIRE -128 208 -160 208
WIRE -32 208 -128 208
WIRE 464 208 288 208
WIRE 320 224 320 128
WIRE -304 288 -304 272
WIRE -128 288 -128 272
WIRE -128 288 -304 288
WIRE -32 288 -128 288
WIRE 320 288 288 288
WIRE 512 288 512 224
WIRE 512 288 320 288
WIRE 544 288 512 288
WIRE 672 288 624 288
WIRE 768 288 672 288
WIRE 800 288 768 288
WIRE 864 288 864 272
WIRE 864 288 800 288
WIRE 976 288 976 160
WIRE 1008 288 976 288
WIRE 1296 288 1264 288
WIRE 1344 288 1344 272
WIRE 1344 288 1296 288
WIRE 1728 288 1344 288
WIRE 672 304 672 288
WIRE 864 304 864 288
WIRE 1344 336 1344 288
WIRE 1728 336 1728 288
WIRE -144 368 -160 368
WIRE -32 368 -64 368
WIRE 416 368 416 128
WIRE 416 368 288 368
WIRE 512 400 512 288
WIRE 544 400 512 400
WIRE 624 400 608 400
WIRE 800 400 800 288
WIRE 864 400 864 368
WIRE 672 416 672 384
WIRE 1344 432 1344 400
WIRE -32 448 -64 448
WIRE 416 448 416 368
WIRE 416 448 288 448
WIRE 512 448 512 400
WIRE 944 464 944 176
WIRE 1136 464 1136 384
WIRE 1136 464 944 464
WIRE 1728 464 1728 416
WIRE -144 528 -160 528
WIRE -32 528 -80 528
WIRE 464 528 288 528
WIRE 864 528 864 480
WIRE 1344 528 1344 512
WIRE 800 544 800 480
WIRE 512 560 512 544
WIRE 1136 592 864 592
WIRE 1296 592 1296 288
WIRE 1296 592 1216 592
WIRE -32 608 -64 608
WIRE 320 608 288 608
WIRE -304 656 -304 288
WIRE 672 656 672 480
WIRE 672 656 -304 656
WIRE 800 656 800 640
WIRE 800 656 672 656
WIRE 672 704 672 656
WIRE 672 800 672 784
FLAG -224 0 rtn
FLAG -160 128 rtn
FLAG -160 368 rtn
FLAG -64 448 rtn
FLAG -160 528 rtn
FLAG -64 608 rtn
FLAG 320 608 rtn
FLAG 512 560 rtn
FLAG 624 400 rtn
FLAG -224 -208 in
FLAG 1344 48 0
FLAG 1344 528 0
FLAG 1728 464 0
FLAG 768 288 vbout
FLAG 1728 288 vldoout
FLAG 96 0 vccb
FLAG 864 528 0
FLAG 688 128 0
FLAG 688 96 rtn
FLAG 304 -192 in
FLAG 672 800 0
SYMBOL PowerProducts\\LTC3703 128 336 R0
SYMATTR InstName U1
SYMBOL nmos 464 128 R0
SYMATTR InstName Q1
SYMATTR Value BSC077N12NS3
SYMBOL nmos 464 448 R0
SYMATTR InstName Q2
SYMATTR Value BSC077N12NS3
SYMBOL ind 528 304 R270
WINDOW 0 32 56 VTop 2
WINDOW 3 5 56 VBottom 2
SYMATTR InstName L1
SYMATTR Value 10µ
SYMBOL cap 848 304 R0
WINDOW 3 39 33 Left 2
WINDOW 123 28 60 Left 2
SYMATTR Value 1000µ
SYMATTR SpiceLine Rser=10m
SYMATTR InstName C1
SYMBOL res -48 352 R90
WINDOW 0 0 56 VBottom 2
WINDOW 3 32 56 VTop 2
SYMATTR InstName R1
SYMATTR Value 10K
SYMBOL res -48 112 R90
WINDOW 0 0 56 VBottom 2
WINDOW 3 32 56 VTop 2
SYMATTR InstName R2
SYMATTR Value 25K
SYMBOL res -144 192 R90
WINDOW 0 0 56 VBottom 2
WINDOW 3 32 56 VTop 2
SYMATTR InstName R3
SYMATTR Value 100K
SYMBOL cap -320 208 R0
WINDOW 0 30 21 Left 2
WINDOW 3 28 56 Left 2
SYMATTR InstName C2
SYMATTR Value 2200p
SYMBOL res 656 288 R0
SYMATTR InstName R5
SYMATTR Value 100
SYMBOL cap 656 416 R0
WINDOW 0 29 12 Left 2
WINDOW 3 28 56 Left 2
SYMATTR InstName C3
SYMATTR Value 2200p
SYMBOL cap -80 512 R90
WINDOW 0 0 32 VBottom 2
WINDOW 3 32 32 VTop 2
SYMATTR InstName C4
SYMATTR Value .001µ
SYMBOL cap 304 224 R0
WINDOW 0 30 5 Left 2
WINDOW 3 37 44 Left 2
SYMATTR InstName C5
SYMATTR Value .1µ
SYMBOL schottky 608 416 M270
WINDOW 0 32 32 VTop 2
WINDOW 3 0 32 VBottom 2
SYMATTR InstName D1
SYMATTR Value 1N5817
SYMATTR Description Diode
SYMATTR Type diode
SYMBOL cap -144 208 R0
WINDOW 0 35 21 Left 2
WINDOW 3 28 56 Left 2
SYMATTR InstName C6
SYMATTR Value 1000p
SYMBOL schottky 400 144 M270
WINDOW 0 32 32 VTop 2
WINDOW 3 0 32 VBottom 2
SYMATTR InstName D2
SYMATTR Value 1N5817
SYMATTR Description Diode
SYMATTR Type diode
SYMBOL voltage -224 -96 R0
WINDOW 123 0 0 Left 0
WINDOW 39 24 44 Left 2
SYMATTR SpiceLine Rser=1
SYMATTR InstName V3
SYMATTR Value 40
SYMBOL voltage -224 -224 R0
WINDOW 123 0 0 Left 0
WINDOW 39 0 0 Left 0
WINDOW 3 -402 51 Left 2
SYMATTR InstName V2
SYMATTR Value PULSE(0 5 0 10n 10n 0.49m 1m)
SYMBOL res 1328 48 R0
SYMATTR InstName R7
SYMATTR Value 18k
SYMBOL res 1328 176 R0
SYMATTR InstName R8
SYMATTR Value 1k
SYMBOL cap 1328 336 R0
SYMATTR InstName C7
SYMATTR Value 10µ
SYMBOL res 1328 416 R0
SYMATTR InstName R9
SYMATTR Value 1
SYMBOL res 1712 320 R0
SYMATTR InstName R10
SYMATTR Value 8
SYMBOL res 848 384 R0
SYMATTR InstName R13
SYMATTR Value 0.1
SYMBOL res -80 -144 R0
SYMATTR InstName R11
SYMATTR Value 300
SYMBOL res 656 688 R0
SYMATTR InstName R6
SYMATTR Value 10k
SYMBOL pnp 864 640 R180
SYMATTR InstName Q3
SYMATTR Value 2N2907
SYMBOL res 1232 576 R90
WINDOW 0 0 56 VBottom 2
WINDOW 3 32 56 VTop 2
SYMATTR InstName R12
SYMATTR Value 33k
SYMBOL res 784 384 R0
SYMATTR InstName R14
SYMATTR Value 22k
SYMBOL PowerProducts\\LT1084 1136 288 R0
SYMATTR InstName U3
SYMBOL res 848 176 R0
SYMATTR InstName R4
SYMATTR Value 0.01
TEXT 200 696 Left 2 !.tran 3m startup
