Version 4.1
SHEET 1 1032 680
WIRE 80 -128 -32 -128
WIRE 176 -128 80 -128
WIRE 192 -128 176 -128
WIRE 368 -128 272 -128
WIRE 448 -128 368 -128
WIRE 448 -112 448 -128
WIRE -32 -96 -32 -128
WIRE 176 -80 176 -128
WIRE 272 -80 272 -128
WIRE 656 -32 448 -32
WIRE 960 -32 816 -32
WIRE 448 -16 448 -32
WIRE -32 16 -32 -16
WIRE 176 16 176 0
WIRE 272 16 272 0
WIRE 816 32 816 -32
WIRE 176 64 272 16
WIRE 272 64 176 16
WIRE 80 80 80 -128
WIRE 176 80 176 64
WIRE 272 80 272 64
WIRE 368 80 368 -128
WIRE 816 144 816 112
WIRE 656 160 656 -32
WIRE 496 208 416 208
WIRE 592 208 496 208
WIRE 496 224 496 208
WIRE 720 256 656 256
WIRE 960 256 960 -32
WIRE 960 256 912 256
WIRE 224 352 224 336
WIRE 496 352 496 304
WIRE 496 352 224 352
WIRE 720 352 496 352
WIRE 976 352 912 352
WIRE 224 368 224 352
WIRE 976 400 976 352
WIRE 224 464 224 448
WIRE 976 496 976 480
FLAG 448 -16 0
FLAG -32 16 0
FLAG 224 464 0
FLAG 816 144 0
FLAG 976 496 0
SYMBOL opamps\\LTC6104 224 208 R0
SYMATTR InstName U1
SYMBOL res 288 -144 R90
WINDOW 0 0 56 VBottom 2
WINDOW 3 32 56 VTop 2
SYMATTR InstName R1
SYMATTR Value 10m
SYMBOL res 160 16 M180
WINDOW 0 36 76 Left 2
WINDOW 3 36 40 Left 2
SYMATTR InstName R2
SYMATTR Value 33
SYMBOL res 256 16 M180
WINDOW 0 36 76 Left 2
WINDOW 3 36 40 Left 2
SYMATTR InstName R3
SYMATTR Value 33
SYMBOL voltage -32 -112 R0
WINDOW 123 0 0 Left 0
WINDOW 39 0 0 Left 0
SYMATTR InstName V1
SYMATTR Value -15
SYMBOL current 448 -112 M0
WINDOW 3 24 28 Left 2
WINDOW 123 0 0 Left 0
WINDOW 39 0 0 Left 0
SYMATTR Value SINE(0 3.5 100)
SYMATTR InstName I1
SYMBOL res 480 208 R0
SYMATTR InstName R4
SYMATTR Value 1.9k
SYMBOL voltage 224 352 R0
WINDOW 123 0 0 Left 0
WINDOW 39 0 0 Left 0
SYMATTR InstName V3
SYMATTR Value -22.6
SYMBOL npn 592 160 R0
SYMATTR InstName Q1
SYMBOL Optos\\PC817A 816 304 R0
SYMATTR InstName U2
SYMBOL voltage 816 16 R0
WINDOW 123 0 0 Left 0
WINDOW 39 0 0 Left 0
SYMATTR InstName V2
SYMATTR Value 14.3
SYMBOL res 960 384 R0
SYMATTR InstName R5
SYMATTR Value 1k
TEXT 616 384 Left 2 !.tran 30m
